/*--------------------------------*- C++ -*----------------------------------*\
| =========                 |                                                 |
| \\      /  F ield         | OpenFOAM: The Open Source CFD Toolbox           |
|  \\    /   O peration     | Version:  v2006                                 |
|   \\  /    A nd           | Website:  www.openfoam.com                      |
|    \\/     M anipulation  |                                                 |
\*---------------------------------------------------------------------------*/
FoamFile
{
    version     2.0;
    format      ascii;
    class       dictionary;
    location    "system";
    object      fvSolution;
}
// * * * * * * * * * * * * * * * * * * * * * * * * * * * * * * * * * * * * * //

field "alpha.water";
type composedFunction;
mode minDist;
composedFunction
{
    plane
    {
        type plane;
        origin (0 1. 0);
        normal (0 -1 0);
    }
    sphere1
    {
        type sphere;
        radius 0.4;
        origin (0.5 1.5 0.5);
        scale 1; // water in sphere
    }
    sphere2
    {
        type sphere;
        radius 0.4;
        origin (0.5 0.5 0.5);
        scale -1; // water out of sphere
    }
}

field     "alpha.water";
type      cylinder;
direction (0 1 0);
radius    0.15;
origin    (0.5 0 0.75);

field       alpha.water;
type        sin;
direction   (1 0 0);
up          (0 0 1);
origin      (-0.5 0 0.5);
period      2;
amplitude   0.05;

field "alpha.gas";
type plane;
origin (0.503e-3 0 0);
normal (-1 0 0);

// ************************************************************************* //
